/*--------------------------------*- C++ -*----------------------------------*\
  =========                 |
  \\      /  F ield         | OpenFOAM: The Open Source CFD Toolbox
   \\    /   O peration     | Website:  https://openfoam.org
    \\  /    A nd           | Version:  12
     \\/     M anipulation  |
\*---------------------------------------------------------------------------*/
FoamFile
{
    format      ascii;
    class       polyBoundaryMesh;
    location    "constant/polyMesh";
    object      boundary;
}
// * * * * * * * * * * * * * * * * * * * * * * * * * * * * * * * * * * * * * //

4
(
    freeSurface
    {
        type            wall;
        inGroups        List<word> 1(wall);
        nFaces          181;
        startFace       7429;
    }
    walls
    {
        type            wall;
        inGroups        List<word> 1(wall);
        nFaces          240;
        startFace       7610;
    }
    floatingObject
    {
        type            wall;
        inGroups        List<word> 1(wall);
        nFaces          37;
        startFace       7850;
    }
    frontAndBack
    {
        type            empty;
        inGroups        List<word> 1(empty);
        nFaces          7658;
        startFace       7887;
    }
)

// ************************************************************************* //
