/*--------------------------------*- C++ -*----------------------------------*\
  =========                 |
  \\      /  F ield         | OpenFOAM: The Open Source CFD Toolbox
   \\    /   O peration     | Website:  https://openfoam.org
    \\  /    A nd           | Version:  12
     \\/     M anipulation  |
\*---------------------------------------------------------------------------*/
FoamFile
{
    format      binary;
    class       polyBoundaryMesh;
    location    "constant/polyMesh";
    object      boundary;
}
// * * * * * * * * * * * * * * * * * * * * * * * * * * * * * * * * * * * * * //

6
(
    maxX
    {
        type            patch;
        nFaces          1200;
        startFace       210000;
    }
    minZ
    {
        type            patch;
        nFaces          3600;
        startFace       211200;
    }
    maxZ
    {
        type            patch;
        nFaces          3600;
        startFace       214800;
    }
    minX
    {
        type            patch;
        nFaces          1200;
        startFace       218400;
    }
    minY
    {
        type            patch;
        nFaces          1200;
        startFace       219600;
    }
    maxY
    {
        type            patch;
        nFaces          1200;
        startFace       220800;
    }
)

// ************************************************************************* //
