/*--------------------------------*- C++ -*----------------------------------*\
  =========                 |
  \\      /  F ield         | OpenFOAM: The Open Source CFD Toolbox
   \\    /   O peration     | Website:  https://openfoam.org
    \\  /    A nd           | Version:  12
     \\/     M anipulation  |
\*---------------------------------------------------------------------------*/
FoamFile
{
    format      ascii;
    class       polyBoundaryMesh;
    location    "constant/polyMesh";
    object      boundary;
}
// * * * * * * * * * * * * * * * * * * * * * * * * * * * * * * * * * * * * * //

4
(
    inlet
    {
        type            patch;
        nFaces          200;
        startFace       14050;
    }
    outlet
    {
        type            patch;
        nFaces          200;
        startFace       14250;
    }
    ground
    {
        type            wall;
        inGroups        List<word> 1(wall);
        nFaces          500;
        startFace       14450;
    }
    frontAndBack
    {
        type            symmetry;
        inGroups        List<word> 1(symmetry);
        nFaces          1000;
        startFace       14950;
    }
)

// ************************************************************************* //
