/*--------------------------------*- C++ -*----------------------------------*\
  =========                 |
  \\      /  F ield         | OpenFOAM: The Open Source CFD Toolbox
   \\    /   O peration     | Website:  https://openfoam.org
    \\  /    A nd           | Version:  12
     \\/     M anipulation  |
\*---------------------------------------------------------------------------*/
FoamFile
{
    format      ascii;
    class       volScalarField;
    location    "0";
    object      nuEff;
}
// * * * * * * * * * * * * * * * * * * * * * * * * * * * * * * * * * * * * * //

dimensions      [0 2 -1 0 0 0 0];

internalField   uniform 0.08101588092;

boundaryField
{
    inlet
    {
        type            calculated;
        value           uniform 0.08101588092;
    }
    outlet
    {
        type            calculated;
        value           uniform 0.08101588092;
    }
    walls
    {
        type            calculated;
        value           uniform 0.005377916926;
    }
    frontAndBack
    {
        type            empty;
    }
}


// ************************************************************************* //
