/*--------------------------------*- C++ -*----------------------------------*\
  =========                 |
  \\      /  F ield         | OpenFOAM: The Open Source CFD Toolbox
   \\    /   O peration     | Website:  https://openfoam.org
    \\  /    A nd           | Version:  12
     \\/     M anipulation  |
\*---------------------------------------------------------------------------*/
FoamFile
{
    format      ascii;
    class       volScalarField;
    location    "0";
    object      total(p);
}
// * * * * * * * * * * * * * * * * * * * * * * * * * * * * * * * * * * * * * //

dimensions      [1 -1 -2 0 0 0 0];

internalField   uniform 100037.0759;

boundaryField
{
    inlet
    {
        type            calculated;
        value           uniform 100037.0759;
    }
    outlet
    {
        type            calculated;
        value           uniform 100037.0759;
    }
    walls
    {
        type            calculated;
        value           uniform 100000;
    }
    frontAndBack
    {
        type            empty;
    }
}


// ************************************************************************* //
