/*--------------------------------*- C++ -*----------------------------------*\
  =========                 |
  \\      /  F ield         | OpenFOAM: The Open Source CFD Toolbox
   \\    /   O peration     | Website:  https://openfoam.org
    \\  /    A nd           | Version:  12
     \\/     M anipulation  |
\*---------------------------------------------------------------------------*/
FoamFile
{
    format      binary;
    class       decomposedBlockData;
    location    "/home/as/openfoam/OpenFOAM-12/test/IO/fileHandler/processors4/constant/polyMesh/boundary";
    object      boundary;
}
// * * * * * * * * * * * * * * * * * * * * * * * * * * * * * * * * * * * * * //


// Processor0

1490
(/*--------------------------------*- C++ -*----------------------------------*\
  =========                 |
  \\      /  F ield         | OpenFOAM: The Open Source CFD Toolbox
   \\    /   O peration     | Website:  https://openfoam.org
    \\  /    A nd           | Version:  12
     \\/     M anipulation  |
\*---------------------------------------------------------------------------*/
FoamFile
{
    format      binary;
    class       polyBoundaryMesh;
    location    "constant/polyMesh";
    object      boundary;
}
// * * * * * * * * * * * * * * * * * * * * * * * * * * * * * * * * * * * * * //

5
(
    walls
    {
        type            wall;
        inGroups        List<word> 1(wall);
        nFaces          59;
        startFace       696;
    }
    frontAndBack
    {
        type            wall;
        inGroups        List<word> 1(wall);
        nFaces          768;
        startFace       755;
    }
    inlet
    {
        type            patch;
        nFaces          7;
        startFace       1523;
    }
    outlet
    {
        type            patch;
        nFaces          6;
        startFace       1530;
    }
    procBoundary0to1
    {
        type            processor;
        inGroups        List<word> 1(processor);
        nFaces          72;
        startFace       1536;
        matchTolerance  0.0001;
        myProcNo        0;
        neighbProcNo    1;
    }
)

// ************************************************************************* //
)

// Processor1

1061
(6
(
    walls
    {
        type            wall;
        inGroups        List<word> 1(wall);
        nFaces          5;
        startFace       692;
    }
    frontAndBack
    {
        type            wall;
        inGroups        List<word> 1(wall);
        nFaces          768;
        startFace       697;
    }
    inlet
    {
        type            patch;
        nFaces          5;
        startFace       1465;
    }
    outlet
    {
        type            patch;
        nFaces          6;
        startFace       1470;
    }
    procBoundary1to0
    {
        type            processor;
        inGroups        List<word> 1(processor);
        nFaces          72;
        startFace       1476;
        matchTolerance  0.0001;
        myProcNo        1;
        neighbProcNo    0;
    }
    procBoundary1to2
    {
        type            processor;
        inGroups        List<word> 1(processor);
        nFaces          64;
        startFace       1548;
        matchTolerance  0.0001;
        myProcNo        1;
        neighbProcNo    2;
    }
))

// Processor2

1061
(6
(
    walls
    {
        type            wall;
        inGroups        List<word> 1(wall);
        nFaces          5;
        startFace       692;
    }
    frontAndBack
    {
        type            wall;
        inGroups        List<word> 1(wall);
        nFaces          768;
        startFace       697;
    }
    inlet
    {
        type            patch;
        nFaces          5;
        startFace       1465;
    }
    outlet
    {
        type            patch;
        nFaces          6;
        startFace       1470;
    }
    procBoundary2to1
    {
        type            processor;
        inGroups        List<word> 1(processor);
        nFaces          64;
        startFace       1476;
        matchTolerance  0.0001;
        myProcNo        2;
        neighbProcNo    1;
    }
    procBoundary2to3
    {
        type            processor;
        inGroups        List<word> 1(processor);
        nFaces          72;
        startFace       1540;
        matchTolerance  0.0001;
        myProcNo        2;
        neighbProcNo    3;
    }
))

// Processor3

801
(5
(
    walls
    {
        type            wall;
        inGroups        List<word> 1(wall);
        nFaces          59;
        startFace       696;
    }
    frontAndBack
    {
        type            wall;
        inGroups        List<word> 1(wall);
        nFaces          768;
        startFace       755;
    }
    inlet
    {
        type            patch;
        nFaces          7;
        startFace       1523;
    }
    outlet
    {
        type            patch;
        nFaces          6;
        startFace       1530;
    }
    procBoundary3to2
    {
        type            processor;
        inGroups        List<word> 1(processor);
        nFaces          72;
        startFace       1536;
        matchTolerance  0.0001;
        myProcNo        3;
        neighbProcNo    2;
    }
))
