/*--------------------------------*- C++ -*----------------------------------*\
  =========                 |
  \\      /  F ield         | OpenFOAM: The Open Source CFD Toolbox
   \\    /   O peration     | Website:  https://openfoam.org
    \\  /    A nd           | Version:  12
     \\/     M anipulation  |
\*---------------------------------------------------------------------------*/
FoamFile
{
    format      binary;
    class       polyBoundaryMesh;
    location    "constant/polyMesh";
    object      boundary;
}
// * * * * * * * * * * * * * * * * * * * * * * * * * * * * * * * * * * * * * //

3
(
    walls
    {
        type            wall;
        inGroups        List<word> 1(wall);
        nFaces          960;
        startFace       8016;
    }
    inlet
    {
        type            patch;
        nFaces          144;
        startFace       8976;
    }
    outlet
    {
        type            patch;
        nFaces          144;
        startFace       9120;
    }
)

// ************************************************************************* //
